*Heading
** Job name: Job-UMAT Model name: Model-UMAT
** Generated by: Abaqus/CAE 2018
*Preprint, echo=NO, model=NO, history=NO, contact=NO
**
** PARTS
**
*Part, name=Beam
*Node
      1,          7.5,          15.,         150.
      2,          7.5,          10.,         150.
      3,          7.5,           5.,         150.
      4,          7.5,           0.,         150.
      5,          7.5,          -5.,         150.
      6,          7.5,         -10.,         150.
      7,          7.5,         -15.,         150.
      8,          7.5,          15.,         145.
      9,          7.5,          10.,         145.
     10,          7.5,           5.,         145.
     11,          7.5,           0.,         145.
     12,          7.5,          -5.,         145.
     13,          7.5,         -10.,         145.
     14,          7.5,         -15.,         145.
     15,          7.5,          15.,         140.
     16,          7.5,          10.,         140.
     17,          7.5,           5.,         140.
     18,          7.5,           0.,         140.
     19,          7.5,          -5.,         140.
     20,          7.5,         -10.,         140.
** ... 848 like lines cut
*Element, type=C3D8
  1, 218, 219, 226, 225,   1,   2,   9,   8
  2, 219, 220, 227, 226,   2,   3,  10,   9
  3, 220, 221, 228, 227,   3,   4,  11,  10
  4, 221, 222, 229, 228,   4,   5,  12,  11
  5, 222, 223, 230, 229,   5,   6,  13,  12
  6, 223, 224, 231, 230,   6,   7,  14,  13
  7, 225, 226, 233, 232,   8,   9,  16,  15
  8, 226, 227, 234, 233,   9,  10,  17,  16
  9, 227, 228, 235, 234,  10,  11,  18,  17
 10, 228, 229, 236, 235,  11,  12,  19,  18
 11, 229, 230, 237, 236,  12,  13,  20,  19
 12, 230, 231, 238, 237,  13,  14,  21,  20
 13, 232, 233, 240, 239,  15,  16,  23,  22
 14, 233, 234, 241, 240,  16,  17,  24,  23
 15, 234, 235, 242, 241,  17,  18,  25,  24
 16, 235, 236, 243, 242,  18,  19,  26,  25
 17, 236, 237, 244, 243,  19,  20,  27,  26
 18, 237, 238, 245, 244,  20,  21,  28,  27
 19, 239, 240, 247, 246,  22,  23,  30,  29
 20, 240, 241, 248, 247,  23,  24,  31,  30
** ... 520 like lines cut
*Nset, nset=_PickedSet2, internal, generate
   1,  868,    1
*Elset, elset=_PickedSet2, internal, generate
   1,  540,    1
** Section: Section-1
*Solid Section, elset=_PickedSet2, material=Material-UMAT
,
*End Part
**  
**
** ASSEMBLY
**
*Assembly, name=Assembly
**  
*Instance, name=Beam-1, part=Beam
*End Instance
**  
*Node
      1,           0.,           0.,         150.
*Nset, nset=RP-1
 1,
*Nset, nset=_PickedSet5, internal, instance=Beam-1
 211, 212, 213, 214, 215, 216, 217, 428, 429, 430, 431, 432, 433, 434, 645, 646
 647, 648, 649, 650, 651, 862, 863, 864, 865, 866, 867, 868
*Elset, elset=_PickedSet5, internal, instance=Beam-1
 175, 176, 177, 178, 179, 180, 355, 356, 357, 358, 359, 360, 535, 536, 537, 538
 539, 540
*Nset, nset=_PickedSet18, internal, instance=Beam-1
   1,   2,   3,   4,   5,   6,   7, 218, 219, 220, 221, 222, 223, 224, 435, 436
 437, 438, 439, 440, 441, 652, 653, 654, 655, 656, 657, 658
*Elset, elset=_PickedSet18, internal, instance=Beam-1
   1,   2,   3,   4,   5,   6, 181, 182, 183, 184, 185, 186, 361, 362, 363, 364
 365, 366
*End Assembly
** 
** MATERIALS
** 
*Material, name=Material-1
*Elastic
200000., 0.3
*Plastic
200.,    0.
220., 0.009
220., 0.029
*Material, name=Material-UMAT
*Depvar
     13,
*User Material, constants=8
200000.,   0.3,  200.,    0.,  220., 0.009,  220., 0.029
** 
** BOUNDARY CONDITIONS
** 
** Name: BC-1 Type: Displacement/Rotation
*Boundary
_PickedSet5, 1, 1
_PickedSet5, 2, 2
_PickedSet5, 3, 3
_PickedSet5, 4, 4
_PickedSet5, 5, 5
_PickedSet5, 6, 6
** ----------------------------------------------------------------
** 
** STEP: Step-1
** 
*Step, name=Step-1, nlgeom=NO
*Static, direct
0.05, 1., 
** 
** BOUNDARY CONDITIONS
** 
** Name: Displacement Type: Displacement/Rotation
*Boundary
_PickedSet18, 3, 3, 3.
** 
** OUTPUT REQUESTS
** 
*Restart, write, frequency=0
** 
** FIELD OUTPUT: F-Output-1
** 
*Output, field
*Node Output
CF, RF, U
*Element Output, directions=YES
EACTIVE, EEQUT, FV, LE, MFR, MVF, PE, PEEQ, PEMAG, S, SDV, SEQUT, STATUS, STATUSXFEM, TE, TEEQ
TEVOL, UVARM
*Contact Output
CDISP, CSTRESS
** 
** HISTORY OUTPUT: H-Output-2
** 
** 
** HISTORY OUTPUT: H-Output-1
** 
*Output, history, variable=PRESELECT
*End Step
** ----------------------------------------------------------------
** 
** STEP: Step-2
** 
*Step, name=Step-2, nlgeom=NO
*Static, direct
0.05, 1., 
** 
** BOUNDARY CONDITIONS
** 
** Name: BC-1 Type: Displacement/Rotation
*Boundary, op=NEW
_PickedSet5, 1, 1
_PickedSet5, 2, 2
_PickedSet5, 3, 3
_PickedSet5, 4, 4
_PickedSet5, 5, 5
_PickedSet5, 6, 6
** Name: Displacement Type: Displacement/Rotation
*Boundary, op=NEW
** 
** OUTPUT REQUESTS
** 
*Restart, write, frequency=0
** 
** FIELD OUTPUT: F-Output-1
** 
*Output, field
*Node Output
CF, RF, U
*Element Output, directions=YES
EACTIVE, EEQUT, FV, LE, MFR, MVF, PE, PEEQ, PEMAG, S, SDV, SEQUT, STATUS, STATUSXFEM, TE, TEEQ
TEVOL, UVARM
*Contact Output
CDISP, CSTRESS
** 
** HISTORY OUTPUT: H-Output-2
** 
** 
** HISTORY OUTPUT: H-Output-1
** 
*Output, history, variable=PRESELECT
*End Step
